Version 4
SHEET 1 1876 680
WIRE 496 -128 304 -128
WIRE 608 -128 496 -128
WIRE 720 -128 608 -128
WIRE 208 -96 80 -96
WIRE 304 -96 304 -128
WIRE 304 -96 208 -96
WIRE 496 -80 496 -128
WIRE 80 -48 80 -96
WIRE 208 -48 208 -96
WIRE 496 16 496 -16
WIRE 496 16 384 16
WIRE -112 32 -208 32
WIRE -48 32 -112 32
WIRE 80 32 80 16
WIRE 80 32 32 32
WIRE 496 48 496 16
WIRE 608 48 608 -128
WIRE -208 64 -208 32
WIRE -112 64 -112 32
WIRE 720 112 720 -128
WIRE 496 128 496 112
WIRE 384 144 384 16
WIRE -208 176 -208 144
WIRE -112 176 -112 128
WIRE -112 176 -208 176
WIRE 208 176 208 16
WIRE 208 176 -112 176
WIRE 80 192 80 32
WIRE 208 192 208 176
WIRE 496 240 496 208
WIRE 608 240 608 112
WIRE 608 240 496 240
WIRE 496 272 496 240
WIRE 80 320 80 256
WIRE 208 320 208 256
WIRE 208 320 80 320
WIRE 304 320 208 320
WIRE 304 368 304 320
WIRE 384 368 384 208
WIRE 384 368 304 368
WIRE 496 368 496 336
WIRE 496 368 384 368
WIRE 720 368 720 192
WIRE 720 368 496 368
WIRE 384 400 384 368
FLAG 384 400 0
SYMBOL diode 96 16 R180
WINDOW 0 -43 36 Left 2
WINDOW 3 24 0 Invisible 2
SYMATTR InstName D1
SYMATTR Value DI_S1J
SYMBOL diode 96 256 R180
WINDOW 0 -43 36 Left 2
WINDOW 3 24 0 Invisible 2
SYMATTR InstName D2
SYMATTR Value DI_S1J
SYMBOL diode 224 16 R180
WINDOW 0 -43 36 Left 2
WINDOW 3 24 0 Invisible 2
SYMATTR InstName D3
SYMATTR Value DI_S1J
SYMBOL diode 224 256 R180
WINDOW 0 -43 36 Left 2
WINDOW 3 24 0 Invisible 2
SYMATTR InstName D4
SYMATTR Value DI_S1J
SYMBOL diode 400 208 R180
WINDOW 0 -43 36 Left 2
WINDOW 3 24 0 Invisible 2
SYMATTR InstName D5
SYMATTR Value DI_S1J
SYMBOL diode 480 48 R0
WINDOW 0 45 32 Left 2
WINDOW 3 24 64 Invisible 2
SYMATTR InstName D6
SYMATTR Value DI_S1J
SYMBOL diode 624 112 R180
WINDOW 0 -43 36 Left 2
WINDOW 3 24 0 Invisible 2
SYMATTR InstName D7
SYMATTR Value DI_S1J
SYMBOL cap 480 -80 R0
SYMATTR InstName C1
SYMATTR Value 10µ
SYMBOL cap 480 272 R0
SYMATTR InstName C2
SYMATTR Value 10µ
SYMBOL res 480 112 R0
SYMATTR InstName R1
SYMATTR Value {Rvf}
SYMBOL voltage -208 48 R0
WINDOW 3 -83 151 Left 2
WINDOW 123 0 0 Left 0
WINDOW 39 0 0 Left 0
SYMATTR Value SINE(0 310 50)
SYMATTR InstName V1
SYMBOL res 704 96 R0
SYMATTR InstName R_LOAD
SYMATTR Value 5k
SYMBOL cap -128 64 R0
SYMATTR InstName C3
SYMATTR Value 10n
SYMBOL res 48 16 R90
WINDOW 0 0 56 VBottom 2
WINDOW 3 32 56 VTop 2
SYMATTR InstName R2
SYMATTR Value 10
TEXT -264 -112 Left 2 !.tran 500m
TEXT -280 -208 Left 2 !*.step param Rvf list 1 10 100 1000
TEXT -264 -160 Left 2 !.param Rvf=500
